applications/TransactiveEnergy-ThreeAgg/GLDtest/IEEE_123_mod_0.glm
//IEEE 123 node system with added distributed generation and aggregated HVACs.

clock {
    starttime '2010-08-16 00:00:00';
    stoptime '2010-08-17 00:00:00';
}

#set randomseed=10
#include "inputFiles/appliance_schedules.glm"
#set minimum_timestep=1
#set profiler=1
#set relax_naming_rules=1
#set double_format=%+.12lg
module market;
module tape;
module climate;
module generators;
module residential {
    implicit_enduses NONE;
};
module connection {
    security STANDARD;
  lockout 1 min;
};
module powerflow {
    solver_method FBS;
    line_limits FALSE;
};

object csv_reader {
    name CSVREADER;
    filename "inputFiles/ColumbusWeather2009_2aLONG.csv";
}

object climate {
    name "Climate";
    tmyfile "inputFiles/ColumbusWeather2009_2aLONG.csv";
    reader CSVREADER;
    object recorder {
        property temperature;
        interval 300;
        file Output/Toutside.csv;
    };
};

class dummy_class {
    double consensus_iterations;
    double theoretical_feeder_load;
    double wholesale_LMP;
    double aggregator_1_cleared_quantity;
    double aggregator_2_cleared_quantity;
    double aggregator_3_cleared_quantity;
    double aggregator_1_limit;
    double aggregator_2_limit;
    double aggregator_3_limit;
}

object dummy_class {
    name dummy;
    aggregator_1_limit 1.0;
    aggregator_2_limit 2.0;
    aggregator_3_limit 4.0;
    object recorder {
        property consensus_iterations;
        interval 300;
        file Output/consensus_iterations.csv;
    };
    object recorder {
        property theoretical_feeder_load;
        interval 300;
        file Output/theoretical_feeder_load.csv;
    };
    object recorder {
        property wholesale_LMP;
        interval 300;
        file Output/wholesale_LMP.csv;
    };
    object recorder {
        property aggregator_1_cleared_quantity,aggregator_2_cleared_quantity,aggregator_3_cleared_quantity;
        interval 300;
        file Output/aggregator_cleared_quantity.csv;
    };
    object recorder {
        property aggregator_1_limit,aggregator_2_limit,aggregator_3_limit;
        interval 1000000000;
        file Output/aggregator_limits.csv;
    };
}

object meter {
    parent Meter_7;
    name m_DG_7;
    phases ABCN;
    nominal_voltage 2401.7771;
    groupid DG_Meter;
}

object load {
    parent m_DG_7;
    name DG_7;
    nominal_voltage 2401.7771;
    phases ABCN;
    constant_power_A_real 0;
    constant_power_B_real 0;
    constant_power_C_real 0;
    object recorder {
        property constant_power_A_real,constant_power_B_real,constant_power_C_real;
        interval 30;
        file Output/DG_7.csv;
    };
}

object meter {
    parent Meter_18;
    name m_DG_18;
    phases ABCN;
    nominal_voltage 2401.7771;
    groupid DG_Meter;
}

object load {
    parent m_DG_18;
    name DG_18;
    nominal_voltage 2401.7771;
    phases ABCN;
    constant_power_A_real 0;
    constant_power_B_real 0;
    constant_power_C_real 0;
    object recorder {
        property constant_power_A_real,constant_power_B_real,constant_power_C_real;
        interval 30;
        file Output/DG_18.csv;
    };
}

object meter {
    parent Meter_56;
    name m_DG_56;
    phases ABCN;
    nominal_voltage 2401.7771;
    groupid DG_Meter;
}

object load {
    parent m_DG_56;
    name DG_56;
    nominal_voltage 2401.7771;
    phases ABCN;
    constant_power_A_real 0;
    constant_power_B_real 0;
    constant_power_C_real 0;
    object recorder {
        property constant_power_A_real,constant_power_B_real,constant_power_C_real;
        interval 30;
        file Output/DG_56.csv;
    };
}

object meter {
    parent Meter_57;
    name m_DG_57;
    phases ABCN;
    nominal_voltage 2401.7771;
    groupid DG_Meter;
}

object load {
    parent m_DG_57;
    name DG_57;
    nominal_voltage 2401.7771;
    phases ABCN;
    constant_power_A_real 0;
    constant_power_B_real 0;
    constant_power_C_real 0;
    object recorder {
        property constant_power_A_real,constant_power_B_real,constant_power_C_real;
        interval 30;
        file Output/DG_57.csv;
    };
}

object meter {
    parent Meter_152;
    name m_DG_152;
    phases ABCN;
    nominal_voltage 2401.7771;
    groupid DG_Meter;
}

object load {
    parent m_DG_152;
    name DG_152;
    nominal_voltage 2401.7771;
    phases ABCN;
    constant_power_A_real 0;
    constant_power_B_real 0;
    constant_power_C_real 0;
    object recorder {
        property constant_power_A_real,constant_power_B_real,constant_power_C_real;
        interval 30;
        file Output/DG_152.csv;
    };
}

//Configurations

object overhead_line_conductor {     
      name overhead_line_conductor_10001;     
      geometric_mean_radius 0.0244 ;    
      resistance 0.30600;     
}       

object overhead_line_conductor {     
      name overhead_line_conductor_10009;     
      geometric_mean_radius 0.004460 ;    
      resistance 1.12000;     
}       

object overhead_line_conductor {     
      name overhead_line_conductor_10002;     
      geometric_mean_radius 0.008140 ;    
      resistance 0.59200;     
}       

object underground_line_conductor {     
      name underground_line_conductor_10003;     
      outer_diameter 1.060000;     
      conductor_gmr 0.011100;     
      conductor_diameter 0.368000;     
      conductor_resistance 0.970000;     
      neutral_gmr 0.011100;     
      neutral_resistance 0.970000;     
      neutral_diameter 0.0640837;     
      neutral_strands 6.000000;     
      shield_gmr 0.000000;     
      shield_resistance 0.000000;     
}       

object line_spacing {     
      name line_spacing_5001;     
      distance_AB 2.5;     
      distance_AC 7.0;     
      distance_BC 4.5;     
      distance_AN 5.656854;     
      distance_BN 4.272002;     
      distance_CN 5.0;     
}       

object line_spacing {     
      name line_spacing_5002;     
      distance_AB 4.5;     
      distance_AC 2.5;     
      distance_BC 7.0;     
      distance_AN 5.0;     
      distance_BN 4.272002;     
      distance_CN 5.656854;     
}       

object line_spacing {     
      name line_spacing_5003;     
      distance_AB 7.0;     
      distance_AC 4.5;     
      distance_BC 2.5;     
      distance_AN 5.0;     
      distance_BN 5.656854;     
      distance_CN 4.272002;     
}       

object line_spacing {     
      name line_spacing_5004;     
      distance_AB 4.5;     
      distance_AC 7.0;     
      distance_BC 2.5;     
      distance_AN 5.0;     
      distance_BN 4.272002;     
      distance_CN 5.656854;     
}       

object line_spacing {     
      name line_spacing_5005;     
      distance_AB 2.5;     
      distance_AC 4.5;     
      distance_BC 7.0;     
      distance_BN 5.656854;     
      distance_AN 4.272002;     
      distance_CN 5.0;     
}       

object line_spacing {     
      name line_spacing_5006;     
      distance_AB 7.0;     
      distance_AC 2.5;     
      distance_BC 4.5;     
      distance_AN 5.656854;     
      distance_CN 4.272002;     
      distance_BN 5.0;     
}       

object line_spacing {     
      name line_spacing_5007;     
      distance_AB 0.0;     
      distance_AC 7.0;     
      distance_BC 0.0;     
      distance_AN 5.656854;     
      distance_BN 0.0;     
      distance_CN 5.0;     
}       

object line_spacing {     
      name line_spacing_5008;     
      distance_AB 7.0;     
      distance_AC 0.0;     
      distance_BC 0.0;     
      distance_AN 5.656854;     
      distance_BN 5.0;     
      distance_CN 0.0;     
}       

object line_spacing {     
      name line_spacing_5009;     
      distance_AB 0.0;     
      distance_AC 0.0;     
      distance_BC 0.0;     
      distance_AN 5.0;     
      distance_BN 0.0;     
      distance_CN 0.0;     
}       

object line_spacing {     
      name line_spacing_50010;     
      distance_AB 0.0;     
      distance_AC 0.0;     
      distance_BC 0.0;     
      distance_AN 0.0;     
      distance_BN 5.0;     
      distance_CN 0.0;     
}       

object line_spacing {     
      name line_spacing_50011;     
      distance_AB 0.0;     
      distance_AC 0.0;     
      distance_BC 0.0;     
      distance_AN 0.0;     
      distance_BN 0.0;     
      distance_CN 5.0;     
}       

object line_spacing {     
      name line_spacing_50012;     
      distance_AB 0.5;     
      distance_AC 1.0;     
      distance_BC 0.5;     
      distance_AN 0.0;     
      distance_BN 0.0;     
      distance_CN 0.0;     
}       

object line_configuration {     
      name line_configuration_1001;     
      conductor_A overhead_line_conductor_10001;     
      conductor_B overhead_line_conductor_10001;     
      conductor_C overhead_line_conductor_10001;     
      conductor_N overhead_line_conductor_10002;     
      spacing line_spacing_5001;     
}       

object line_configuration {     
      name line_configuration_1002;     
      conductor_A overhead_line_conductor_10001;     
      conductor_B overhead_line_conductor_10001;     
      conductor_C overhead_line_conductor_10001;     
      conductor_N overhead_line_conductor_10002;     
      spacing line_spacing_5002;     
}       

object line_configuration {     
      name line_configuration_1003;     
      conductor_A overhead_line_conductor_10001;     
      conductor_B overhead_line_conductor_10001;     
      conductor_C overhead_line_conductor_10001;     
      conductor_N overhead_line_conductor_10002;     
      spacing line_spacing_5003;     
}       

object line_configuration {     
      name line_configuration_1004;     
      conductor_A overhead_line_conductor_10001;     
      conductor_B overhead_line_conductor_10001;     
      conductor_C overhead_line_conductor_10001;     
      conductor_N overhead_line_conductor_10002;     
      spacing line_spacing_5004;     
}       

object line_configuration {     
      name line_configuration_1005;     
      conductor_A overhead_line_conductor_10001;     
      conductor_B overhead_line_conductor_10001;     
      conductor_C overhead_line_conductor_10001;     
      conductor_N overhead_line_conductor_10002;     
      spacing line_spacing_5005;     
}       

object line_configuration {     
      name line_configuration_1006;     
      conductor_A overhead_line_conductor_10001;     
      conductor_B overhead_line_conductor_10001;     
      conductor_C overhead_line_conductor_10001;     
      conductor_N overhead_line_conductor_10002;     
      spacing line_spacing_5006;     
}       

object line_configuration {     
      name line_configuration_1007;     
      conductor_A overhead_line_conductor_10001;     
      conductor_C overhead_line_conductor_10001;     
      conductor_N overhead_line_conductor_10002;     
      spacing line_spacing_5007;     
}       

object line_configuration {     
      name line_configuration_1008;     
      conductor_A overhead_line_conductor_10001;     
      conductor_B overhead_line_conductor_10001;     
      conductor_N overhead_line_conductor_10002;     
      spacing line_spacing_5008;     
}       

object line_configuration {     
      name line_configuration_1009;     
      conductor_A overhead_line_conductor_10009;     
      conductor_N overhead_line_conductor_10009;     
      spacing line_spacing_5009;     
}       

object line_configuration {     
      name line_configuration_10010;     
      conductor_B overhead_line_conductor_10009;     
      conductor_N overhead_line_conductor_10009;     
      spacing line_spacing_50010;     
}       

object line_configuration {     
      name line_configuration_10011;     
      conductor_C overhead_line_conductor_10009;     
      conductor_N overhead_line_conductor_10009;     
      spacing line_spacing_50011;     
}       

object line_configuration {     
      name line_configuration_10012;     
      conductor_A underground_line_conductor_10003;     
      conductor_B underground_line_conductor_10003;     
      conductor_C underground_line_conductor_10003;     
      spacing line_spacing_50012;     
}       

object transformer_configuration {     
      name transformer_configuration_400;     
      connect_type DELTA_DELTA;     
      install_type PADMOUNT;     
      power_rating 150;     
      primary_voltage 4160;     
      secondary_voltage 480;     
      resistance 0.0127;     
      reactance 0.0272;     
}       

object regulator_configuration {
    name regulator_configuration_1501490;
    connect_type 1;
    band_center 2400;
    band_width 40.0;
    time_delay 30.0;
    raise_taps 16;
    lower_taps 16;
    current_transducer_ratio 700;
    power_transducer_ratio 20;
    compensator_r_setting_A 3.0;
    compensator_x_setting_A 7.5;
    compensator_r_setting_B 3.0;
    compensator_x_setting_B 7.5;
    compensator_r_setting_C 3.0;
    compensator_x_setting_C 7.5;
    CT_phase "ABC";
    PT_phase "ABC";
  regulation 0.10;
    Control REMOTE_NODE;
  control_level INDIVIDUAL;
    Type A;
}

object regulator_configuration {
    name regulator_configuration_2526010;
    connect_type 1;
    band_center 2400;
    band_width 40.0;
    time_delay 90.0;
    raise_taps 16;
    lower_taps 16;
    current_transducer_ratio 50;
    power_transducer_ratio 20;
    compensator_r_setting_A 0.4;
    compensator_x_setting_A 0.4;
    compensator_r_setting_C 0.4;
    compensator_x_setting_C 0.4;
    CT_phase "A";
    PT_phase "A";
  regulation 0.10;
    Control REMOTE_NODE;
  control_level BANK;
    Type A;
}

object regulator_configuration {
    name regulator_configuration_914010;
    connect_type 1;
    band_center 2400;
    band_width 40.0;
    time_delay 60.0;
    raise_taps 16;
    lower_taps 16;
    current_transducer_ratio 50;
    power_transducer_ratio 20;
    compensator_r_setting_A 0.4;
    compensator_x_setting_A 0.4;
    CT_phase "A";
    PT_phase "A";
  regulation 0.10;
    Control REMOTE_NODE;
  control_level BANK;
    Type A;
}

object regulator_configuration {
    name regulator_configuration_16067010;
    connect_type 1;
    band_center 2450;
    band_width 40.0;
    time_delay 120.0;
    raise_taps 16;
    lower_taps 16;
    current_transducer_ratio 300;
    power_transducer_ratio 20;
    compensator_r_setting_A 0.6;
    compensator_x_setting_A 1.3;
    compensator_r_setting_B 1.4;
    compensator_x_setting_B 2.6;
    compensator_r_setting_C 0.2;
    compensator_x_setting_C 1.4;
    CT_phase "ABC";
    PT_phase "ABC";
  regulation 0.10;
    Control OUTPUT_VOLTAGE;
  control_level INDIVIDUAL;
    Type A;
}

object overhead_line {     
    groupid Distribution_Line;
      phases "BN";     
      name Meter_1_2;     
      from Meter_1;     
      to Meter_2;     
      length 175;     
      configuration line_configuration_10010;     
}       

object overhead_line {     
    groupid Distribution_Line;
      phases "CN";     
      name Meter_1_3;     
      from Meter_1;     
      to Meter_3;     
      length 250;     
      configuration line_configuration_10011;     
}       

object overhead_line {     
    groupid Distribution_Line;
      phases "ABCN";     
      name Meter_1_7;     
      from Meter_1;     
      to Meter_7;     
      length 300;     
      configuration line_configuration_1001;     
}       

object overhead_line {     
    groupid Distribution_Line;
      phases "CN";     
      name Meter_3_4;     
      from Meter_3;     
      to Meter_4;     
      length 200;     
      configuration line_configuration_10011;     
}       

object overhead_line {     
    groupid Distribution_Line;
      phases "CN";     
      name Meter_3_5;     
      from Meter_3;     
      to Meter_5;     
      length 325;     
      configuration line_configuration_10011;     
}       

object overhead_line {     
    groupid Distribution_Line;
      phases "CN";     
      name Meter_5_6;     
      from Meter_5;     
      to Meter_6;     
      length 250;     
      configuration line_configuration_10011;     
}       

object overhead_line {     
    groupid Distribution_Line;
      phases "ABCN";     
      name Meter_7_8;     
      from Meter_7;     
      to Meter_8;     
      length 200;     
      configuration line_configuration_1001;     
}       

object overhead_line {     
    groupid Distribution_Line;
      phases "BN";     
      name Meter_8_12;     
      from Meter_8;     
      to Meter_12;     
      length 225;     
      configuration line_configuration_10010;     
}       

object overhead_line {     
    groupid Distribution_Line;
      phases "AN";     
      name Meter_8_9;     
      from Meter_8;     
      to Meter_9;     
      length 225;     
      configuration line_configuration_1009;     
}       

object overhead_line {     
    groupid Distribution_Line;
      phases "ABCN";     
      name Meter_8_13;     
      from Meter_8;     
      to Meter_13;     
      length 300;     
      configuration line_configuration_1001;     
}       

object overhead_line {     
    groupid Distribution_Line;
      phases "AN";     
      name Meter_1401_14;     
      from Meter_1401;     
      to Meter_14;     
      length 425;     
      configuration line_configuration_1009;     
}       

object overhead_line {     
    groupid Distribution_Line;
      phases "CN";     
      name Meter_13_34;     
      from Meter_13;     
      to Meter_34;     
      length 150;     
      configuration line_configuration_10011;     
}       

object overhead_line {     
    groupid Distribution_Line;
      phases "ABCN";     
      name Meter_13_18;     
      from Meter_13;     
      to Meter_18;     
      length 825;     
      configuration line_configuration_1002;     
}       

object overhead_line {     
    groupid Distribution_Line;
      phases "AN";     
      name Meter_14_11;     
      from Meter_14;     
      to Meter_11;     
      length 250;     
      configuration line_configuration_1009;     
}       

object overhead_line {     
    groupid Distribution_Line;
      phases "AN";     
      name Meter_14_10;     
      from Meter_14;     
      to Meter_10;     
      length 250;     
      configuration line_configuration_1009;     
}       

object overhead_line {     
    groupid Distribution_Line;
      phases "CN";     
      name Meter_15_16;     
      from Meter_15;     
      to Meter_16;     
      length 375;     
      configuration line_configuration_10011;     
}       

object overhead_line {     
    groupid Distribution_Line;
      phases "CN";     
      name Meter_15_17;     
      from Meter_15;     
      to Meter_17;     
      length 350;     
      configuration line_configuration_10011;     
}       

object overhead_line {     
    groupid Distribution_Line;
      phases "AN";     
      name Meter_18_19;     
      from Meter_18;     
      to Meter_19;     
      length 250;     
      configuration line_configuration_1009;     
}       

object overhead_line {     
    groupid Distribution_Line;
      phases "ABCN";     
      name Meter_18_21;     
      from Meter_18;     
      to Meter_21;     
      length 300;     
      configuration line_configuration_1002;     
}       

object overhead_line {     
    groupid Distribution_Line;
      phases "AN";     
      name Meter_19_20;     
      from Meter_19;     
      to Meter_20;     
      length 325;     
      configuration line_configuration_1009;     
}       

object overhead_line {     
    groupid Distribution_Line;
      phases "BN";     
      name Meter_21_22;     
      from Meter_21;     
      to Meter_22;     
      length 525;     
      configuration line_configuration_10010;     
}       

object overhead_line {     
    groupid Distribution_Line;
      phases "ABCN";     
      name Meter_21_23;     
      from Meter_21;     
      to Meter_23;     
      length 250;     
      configuration line_configuration_1002;     
}       

object overhead_line {     
    groupid Distribution_Line;
      phases "CN";     
      name Meter_23_24;     
      from Meter_23;     
      to Meter_24;     
      length 550;     
      configuration line_configuration_10011;     
}       

object overhead_line {     
    groupid Distribution_Line;
      phases "ABCN";     
      name Meter_23_25;     
      from Meter_23;     
      to Meter_25;     
      length 275;     
      configuration line_configuration_1002;     
}       

object overhead_line {     
    groupid Distribution_Line;
      phases "ACN";     
      name Meter_2601_26;     
      from Meter_2601;     
      to Meter_26;     
      length 350;     
      configuration line_configuration_1007;     
}       

object overhead_line {     
    groupid Distribution_Line;
      phases "ABCN";     
      name Meter_25_28;     
      from Meter_25;     
      to Meter_28;     
      length 200;     
      configuration line_configuration_1002;     
}       

object overhead_line {     
    groupid Distribution_Line;
      phases "ACN";     
      name Meter_26_27;     
      from Meter_26;     
      to Meter_27;     
      length 275;     
      configuration line_configuration_1007;     
}       

object overhead_line {     
    groupid Distribution_Line;
      phases "CN";     
      name Meter_26_31;     
      from Meter_26;     
      to Meter_31;     
      length 225;     
      configuration line_configuration_10011;     
}       

object overhead_line {     
    groupid Distribution_Line;
      phases "AN";     
      name Meter_27_33;     
      from Meter_27;     
      to Meter_33;     
      length 500;     
      configuration line_configuration_1009;     
}       

object overhead_line {     
    groupid Distribution_Line;
      phases "ABCN";     
      name Meter_28_29;     
      from Meter_28;     
      to Meter_29;     
      length 300;     
      configuration line_configuration_1002;     
}       

object overhead_line {     
    groupid Distribution_Line;
      phases "ABCN";     
      name Meter_29_30;     
      from Meter_29;     
      to Meter_30;     
      length 350;     
      configuration line_configuration_1002;     
}       

object overhead_line {     
    groupid Distribution_Line;
      phases "ABCN";     
      name Meter_30_250;     
      from Meter_30;     
      to Meter_250;     
      length 200;     
      configuration line_configuration_1002;     
}       

object overhead_line {     
    groupid Distribution_Line;
      phases "CN";     
      name Meter_31_32;     
      from Meter_31;     
      to Meter_32;     
      length 300;     
      configuration line_configuration_10011;     
}       

object overhead_line {     
    groupid Distribution_Line;
      phases "CN";     
      name Meter_34_15;     
      from Meter_34;     
      to Meter_15;     
      length 100;     
      configuration line_configuration_10011;     
}       

object overhead_line {     
    groupid Distribution_Line;
      phases "ABN";     
      name Meter_35_36;     
      from Meter_35;     
      to Meter_36;     
      length 650;     
      configuration line_configuration_1008;     
}       

object overhead_line {     
    groupid Distribution_Line;
      phases "ABCN";     
      name Meter_35_40;     
      from Meter_35;     
      to Meter_40;     
      length 250;     
      configuration line_configuration_1001;     
}       

object overhead_line {     
    groupid Distribution_Line;
      phases "AN";     
      name Meter_36_37;     
      from Meter_36;     
      to Meter_37;     
      length 300;     
      configuration line_configuration_1009;     
}       

object overhead_line {     
    groupid Distribution_Line;
      phases "BN";     
      name Meter_36_38;     
      from Meter_36;     
      to Meter_38;     
      length 250;     
      configuration line_configuration_10010;     
}       

object overhead_line {     
    groupid Distribution_Line;
      phases "BN";     
      name Meter_38_39;     
      from Meter_38;     
      to Meter_39;     
      length 325;     
      configuration line_configuration_10010;     
}       

object overhead_line {     
    groupid Distribution_Line;
      phases "CN";     
      name Meter_40_41;     
      from Meter_40;     
      to Meter_41;     
      length 325;     
      configuration line_configuration_10011;     
}       

object overhead_line {     
    groupid Distribution_Line;
      phases "ABCN";     
      name Meter_40_42;     
      from Meter_40;     
      to Meter_42;     
      length 250;     
      configuration line_configuration_1001;     
}       

object overhead_line {     
    groupid Distribution_Line;
      phases "BN";     
      name Meter_42_43;     
      from Meter_42;     
      to Meter_43;     
      length 500;     
      configuration line_configuration_10010;     
}       

object overhead_line {     
    groupid Distribution_Line;
      phases "ABCN";     
      name Meter_42_44;     
      from Meter_42;     
      to Meter_44;     
      length 200;     
      configuration line_configuration_1001;     
}       

object overhead_line {     
    groupid Distribution_Line;
      phases "AN";     
      name Meter_44_45;     
      from Meter_44;     
      to Meter_45;     
      length 200;     
      configuration line_configuration_1009;     
}       

object overhead_line {     
    groupid Distribution_Line;
      phases "ABCN";     
      name Meter_44_47;     
      from Meter_44;     
      to Meter_47;     
      length 250;     
      configuration line_configuration_1001;     
}       

object overhead_line {     
    groupid Distribution_Line;
      phases "AN";     
      name Meter_45_46;     
      from Meter_45;     
      to Meter_46;     
      length 300;     
      configuration line_configuration_1009;     
}       

object overhead_line {     
    groupid Distribution_Line;
      phases "ABCN";     
      name Meter_47_48;     
      from Meter_47;     
      to Meter_48;     
      length 150;     
      configuration line_configuration_1004;     
}       

object overhead_line {     
    groupid Distribution_Line;
      phases "ABCN";     
      name Meter_47_49;     
      from Meter_47;     
      to Meter_49;     
      length 250;     
      configuration line_configuration_1004;     
}       

object overhead_line {     
    groupid Distribution_Line;
      phases "ABCN";     
      name Meter_49_50;     
      from Meter_49;     
      to Meter_50;     
      length 250;     
      configuration line_configuration_1004;     
}       

object overhead_line {     
    groupid Distribution_Line;
      phases "ABCN";     
      name Meter_50_51;     
      from Meter_50;     
      to Meter_51;     
      length 250;     
      configuration line_configuration_1004;     
}       

object overhead_line {     
    groupid Distribution_Line;
      phases "ABCN"; // undefined line segment 
      name Meter_51_151;     
      from Meter_51;     
      to Meter_151;     
      length 700;     
      configuration line_configuration_1004;     
}       

object overhead_line {     
    groupid Distribution_Line;
      phases "ABCN";     
      name Meter_52_53;     
      from Meter_52;     
      to Meter_53;     
      length 200;     
      configuration line_configuration_1001;     
}       

object overhead_line {     
    groupid Distribution_Line;
      phases "ABCN";     
      name Meter_53_54;     
      from Meter_53;     
      to Meter_54;     
      length 125;     
      configuration line_configuration_1001;     
}       

object overhead_line {     
    groupid Distribution_Line;
      phases "ABCN";     
      name Meter_54_55;     
      from Meter_54;     
      to Meter_55;     
      length 275;     
      configuration line_configuration_1001;     
}       

object overhead_line {     
    groupid Distribution_Line;
      phases "ABCN";     
      name Meter_54_57;     
      from Meter_54;     
      to Meter_57;     
      length 350;     
      configuration line_configuration_1003;     
}       

object overhead_line {     
    groupid Distribution_Line;
      phases "ABCN";     
      name Meter_55_56;     
      from Meter_55;     
      to Meter_56;     
      length 275;     
      configuration line_configuration_1001;     
}       

object overhead_line {     
    groupid Distribution_Line;
      phases "BN";     
      name Meter_57_58;     
      from Meter_57;     
      to Meter_58;     
      length 250;     
      configuration line_configuration_10010;     
}       

object overhead_line {     
    groupid Distribution_Line;
      phases "ABCN";     
      name Meter_57_60;     
      from Meter_57;     
      to Meter_60;     
      length 750;     
      configuration line_configuration_1003;     
}       

object overhead_line {     
    groupid Distribution_Line;
      phases "BN";     
      name Meter_58_59;     
      from Meter_58;     
      to Meter_59;     
      length 250;     
      configuration line_configuration_10010;     
}       

object overhead_line {     
    groupid Distribution_Line;
      phases "ABCN";     
      name Meter_60_61;     
      from Meter_60;     
      to Meter_61;     
      length 550;     
      configuration line_configuration_1005;     
}       

object underground_line {     
    groupid Distribution_Line;
      phases "ABC";     
      name Meter_60_62;     
      from Meter_60;     
      to Meter_62;     
      length 250;     
      configuration line_configuration_10012;     
}       

object underground_line {     
    groupid Distribution_Line;
      phases "ABC";     
      name Meter_62_63;     
      from Meter_62;     
      to Meter_63;     
      length 175;     
      configuration line_configuration_10012;     
}       

object underground_line {     
    groupid Distribution_Line;
      phases "ABC";     
      name Meter_63_64;     
      from Meter_63;     
      to Meter_64;     
      length 350;     
      configuration line_configuration_10012;     
}       

object underground_line {     
    groupid Distribution_Line;
      phases "ABC";     
      name Meter_64_65;     
      from Meter_64;     
      to Meter_65;     
      length 425;     
      configuration line_configuration_10012;     
}       

object underground_line {     
    groupid Distribution_Line;
      phases "ABC";     
      name Meter_65_66;     
      from Meter_65;     
      to Meter_66;     
      length 325;     
      configuration line_configuration_10012;     
}       

object overhead_line {     
    groupid Distribution_Line;
      phases "AN";     
      name Meter_67_68;     
      from Meter_67;     
      to Meter_68;     
      length 200;     
      configuration line_configuration_1009;     
}       

object overhead_line {     
    groupid Distribution_Line;
      phases "ABCN";     
      name Meter_67_72;     
      from Meter_67;     
      to Meter_72;     
      length 275;     
      configuration line_configuration_1003;     
}       

object overhead_line {     
    groupid Distribution_Line;
      phases "ABCN";     
      name Meter_67_97;     
      from Meter_67;     
      to Meter_97;     
      length 250;     
      configuration line_configuration_1003;     
}       

object overhead_line {     
    groupid Distribution_Line;
      phases "AN";     
      name Meter_68_69;     
      from Meter_68;     
      to Meter_69;     
      length 275;     
      configuration line_configuration_1009;     
}       

object overhead_line {     
    groupid Distribution_Line;
      phases "AN";     
      name Meter_69_70;     
      from Meter_69;     
      to Meter_70;     
      length 325;     
      configuration line_configuration_1009;     
}       

object overhead_line {     
    groupid Distribution_Line;
      phases "AN";     
      name Meter_70_71;     
      from Meter_70;     
      to Meter_71;     
      length 275;     
      configuration line_configuration_1009;     
}       

object overhead_line {     
    groupid Distribution_Line;
      phases "CN";     
      name Meter_72_73;     
      from Meter_72;     
      to Meter_73;     
      length 275;     
      configuration line_configuration_10011;     
}       

object overhead_line {     
    groupid Distribution_Line;
      phases "ABCN";     
      name Meter_72_76;     
      from Meter_72;     
      to Meter_76;     
      length 200;     
      configuration line_configuration_1003;     
}       

object overhead_line {     
    groupid Distribution_Line;
      phases "CN";     
      name Meter_73_74;     
      from Meter_73;     
      to Meter_74;     
      length 350;     
      configuration line_configuration_10011;     
}       

object overhead_line {     
    groupid Distribution_Line;
      phases "CN";     
      name Meter_74_75;     
      from Meter_74;     
      to Meter_75;     
      length 400;     
      configuration line_configuration_10011;     
}       

object overhead_line {     
    groupid Distribution_Line;
      phases "ABCN";     
      name Meter_76_77;     
      from Meter_76;     
      to Meter_77;     
      length 400;     
      configuration line_configuration_1006;     
}       

object overhead_line {     
    groupid Distribution_Line;
      phases "ABCN";     
      name Meter_76_86;     
      from Meter_76;     
      to Meter_86;     
      length 700;     
      configuration line_configuration_1003;     
}       

object overhead_line {     
    groupid Distribution_Line;
      phases "ABCN";     
      name Meter_77_78;     
      from Meter_77;     
      to Meter_78;     
      length 100;     
      configuration line_configuration_1006;     
}       

object overhead_line {     
    groupid Distribution_Line;
      phases "ABCN";     
      name Meter_78_79;     
      from Meter_78;     
      to Meter_79;     
      length 225;     
      configuration line_configuration_1006;     
}       

object overhead_line {     
    groupid Distribution_Line;
      phases "ABCN";     
      name Meter_78_80;     
      from Meter_78;     
      to Meter_80;     
      length 475;     
      configuration line_configuration_1006;     
}       

object overhead_line {     
    groupid Distribution_Line;
      phases "ABCN";     
      name Meter_80_81;     
      from Meter_80;     
      to Meter_81;     
      length 475;     
      configuration line_configuration_1006;     
}       

object overhead_line {     
    groupid Distribution_Line;
      phases "ABCN";     
      name Meter_81_82;     
      from Meter_81;     
      to Meter_82;     
      length 250;     
      configuration line_configuration_1006;     
}       

object overhead_line {     
    groupid Distribution_Line;
      phases "CN";     
      name Meter_81_84;     
      from Meter_81;     
      to Meter_84;     
      length 675;     
      configuration line_configuration_10011;     
}       

object overhead_line {     
    groupid Distribution_Line;
      phases "ABCN";     
      name Meter_82_83;     
      from Meter_82;     
      to Meter_83;     
      length 250;     
      configuration line_configuration_1006;     
}       

object overhead_line {     
    groupid Distribution_Line;
      phases "CN";     
      name Meter_84_85;     
      from Meter_84;     
      to Meter_85;     
      length 475;     
      configuration line_configuration_10011;     
}       

object overhead_line {     
    groupid Distribution_Line;
      phases "ABCN";     
      name Meter_86_87;     
      from Meter_86;     
      to Meter_87;     
      length 450;     
      configuration line_configuration_1006;     
}       

object overhead_line {     
    groupid Distribution_Line;
      phases "AN";     
      name Meter_87_88;     
      from Meter_87;     
      to Meter_88;     
      length 175;     
      configuration line_configuration_1009;     
}       

object overhead_line {     
    groupid Distribution_Line;
      phases "ABCN";     
      name Meter_87_89;     
      from Meter_87;     
      to Meter_89;     
      length 275;     
      configuration line_configuration_1006;     
}       

object overhead_line {     
    groupid Distribution_Line;
      phases "BN";     
      name Meter_89_90;     
      from Meter_89;     
      to Meter_90;     
      length 225;     
      configuration line_configuration_10010;     
}       

object overhead_line {     
    groupid Distribution_Line;
      phases "ABCN";     
      name Meter_89_91;     
      from Meter_89;     
      to Meter_91;     
      length 225;     
      configuration line_configuration_1006;     
}       

object overhead_line {     
    groupid Distribution_Line;
      phases "CN";     
      name Meter_91_92;     
      from Meter_91;     
      to Meter_92;     
      length 300;     
      configuration line_configuration_10011;     
}       

object overhead_line {     
    groupid Distribution_Line;
      phases "ABCN";     
      name Meter_91_93;     
      from Meter_91;     
      to Meter_93;     
      length 225;     
      configuration line_configuration_1006;     
}       

object overhead_line {     
    groupid Distribution_Line;
      phases "AN";     
      name Meter_93_94;     
      from Meter_93;     
      to Meter_94;     
      length 275;     
      configuration line_configuration_1009;     
}       

object overhead_line {     
    groupid Distribution_Line;
      phases "ABCN";     
      name Meter_93_95;     
      from Meter_93;     
      to Meter_95;     
      length 300;     
      configuration line_configuration_1006;     
}       

object overhead_line {     
    groupid Distribution_Line;
      phases "BN";     
      name Meter_95_96;     
      from Meter_95;     
      to Meter_96;     
      length 200;     
      configuration line_configuration_10010;     
}       

object overhead_line {     
    groupid Distribution_Line;
      phases "ABCN";     
      name Meter_97_98;     
      from Meter_97;     
      to Meter_98;     
      length 275;     
      configuration line_configuration_1003;     
}       

object overhead_line {     
    groupid Distribution_Line;
      phases "ABCN";     
      name Meter_98_99;     
      from Meter_98;     
      to Meter_99;     
      length 550;     
      configuration line_configuration_1003;     
}       

object overhead_line {     
    groupid Distribution_Line;
      phases "ABCN";     
      name Meter_99_100;     
      from Meter_99;     
      to Meter_100;     
      length 300;     
      configuration line_configuration_1003;     
}       

object overhead_line {     
    groupid Distribution_Line;
      phases "ABCN";     
      name Meter_100_450;     
      from Meter_100;     
      to Meter_450;     
      length 800;     
      configuration line_configuration_1003;     
}       

object overhead_line {     
    groupid Distribution_Line;
      phases "CN";     
      name Meter_101_102;     
      from Meter_101;     
      to Meter_102;     
      length 225;     
      configuration line_configuration_10011;     
}       

object overhead_line {     
    groupid Distribution_Line;
      phases "ABCN";     
      name Meter_101_105;     
      from Meter_101;     
      to Meter_105;     
      length 275;     
      configuration line_configuration_1003;     
}       

object overhead_line {     
    groupid Distribution_Line;
      phases "CN";     
      name Meter_102_103;     
      from Meter_102;     
      to Meter_103;     
      length 325;     
      configuration line_configuration_10011;     
}       

object overhead_line {     
    groupid Distribution_Line;
      phases "CN";     
      name Meter_103_104;     
      from Meter_103;     
      to Meter_104;     
      length 700;     
      configuration line_configuration_10011;     
}       

object overhead_line {     
    groupid Distribution_Line;
      phases "BN";     
      name Meter_105_106;     
      from Meter_105;     
      to Meter_106;     
      length 225;     
      configuration line_configuration_10010;     
}       

object overhead_line {     
    groupid Distribution_Line;
      phases "ABCN";     
      name Meter_105_108;     
      from Meter_105;     
      to Meter_108;     
      length 325;     
      configuration line_configuration_1003;     
}       

object overhead_line {     
    groupid Distribution_Line;
      phases "BN";     
      name Meter_106_107;     
      from Meter_106;     
      to Meter_107;     
      length 575;     
      configuration line_configuration_10010;     
}       

object overhead_line {     
    groupid Distribution_Line;
      phases "AN";     
      name Meter_108_109;     
      from Meter_108;     
      to Meter_109;     
      length 450;     
      configuration line_configuration_1009;     
}       

object overhead_line {     
    groupid Distribution_Line;
      phases "ABCN";     
      name Meter_108_300;     
      from Meter_108;     
      to Meter_300;     
      length 1000;     
      configuration line_configuration_1003;     
}       

object overhead_line {     
    groupid Distribution_Line;
      phases "AN";     
      name Meter_109_110;     
      from Meter_109;     
      to Meter_110;     
      length 300;     
      configuration line_configuration_1009;     
}       

object overhead_line {     
    groupid Distribution_Line;
      phases "AN";     
      name Meter_110_111;     
      from Meter_110;     
      to Meter_111;     
      length 575;     
      configuration line_configuration_1009;     
}       

object overhead_line {     
    groupid Distribution_Line;
      phases "AN";     
      name Meter_110_112;     
      from Meter_110;     
      to Meter_112;     
      length 125;     
      configuration line_configuration_1009;     
}       

object overhead_line {     
    groupid Distribution_Line;
      phases "AN";     
      name Meter_112_113;     
      from Meter_112;     
      to Meter_113;     
      length 525;     
      configuration line_configuration_1009;     
}       

object overhead_line {     
    groupid Distribution_Line;
      phases "AN";     
      name Meter_113_114;     
      from Meter_113;     
      to Meter_114;     
      length 325;     
      configuration line_configuration_1009;     
}       

object overhead_line {     
    groupid Distribution_Line;
      phases "ABCN";     
      name Meter_135_35;     
      from Meter_135;     
      to Meter_35;     
      length 375;     
      configuration line_configuration_1004;     
}       

object overhead_line {     
    groupid Distribution_Line;
      phases "ABCN";     
      name Meter_149_1;     
      from Meter_149;     
      to Meter_1;     
      length 400;     
      configuration line_configuration_1001;     
}       

object overhead_line {     
    groupid Distribution_Line;
      phases "ABCN";     
      name Meter_152_52;     
      from Meter_152;     
      to Meter_52;     
      length 400;     
      configuration line_configuration_1001;     
}       

object overhead_line {     
    groupid Distribution_Line;
      phases "ABCN";     
      name Meter_6701_67;     
      from Meter_6701;     
      to Meter_67;     
      length 350;     
      configuration line_configuration_1006;     
}       

object overhead_line {     
    groupid Distribution_Line;
      phases "ABCN";     
      name Meter_197_101;     
      from Meter_197;     
      to Meter_101;     
      length 250;     
      configuration line_configuration_1003;     
}       

object meter {     
      phases "CN";     
      name Meter_3;     
      voltage_A 2401.7771;     
      voltage_B -1200.8886-2080.000j;     
      voltage_C -1200.8886+2080.000j;     
      nominal_voltage 2401.7771;     
}       

object meter {     
      phases "ABCN";     
      name Meter_8;     
      voltage_A 2401.7771;     
      voltage_B -1200.8886-2080.000j;     
      voltage_C -1200.8886+2080.000j;     
      nominal_voltage 2401.7771;     
}       

object meter {     
      phases "ABCN";     
      name Meter_13;     
      voltage_A 2401.7771;     
      voltage_B -1200.8886-2080.000j;     
      voltage_C -1200.8886+2080.000j;     
      nominal_voltage 2401.7771;     
}       

object meter {     
      phases "AN";     
      name Meter_14;     
      voltage_A 2401.7771;     
      voltage_B -1200.8886-2080.000j;     
      voltage_C -1200.8886+2080.000j;     
      nominal_voltage 2401.7771;     
}       

object meter {     
      phases "AN";     
      name Meter_1401;     
      voltage_A 2401.7771;     
      voltage_B -1200.8886-2080.000j;     
      voltage_C -1200.8886+2080.000j;     
      nominal_voltage 2401.7771;     
}       

object meter {     
      phases "CN";     
      name Meter_15;     
      voltage_A 2401.7771;     
      voltage_B -1200.8886-2080.000j;     
      voltage_C -1200.8886+2080.000j;     
      nominal_voltage 2401.7771;     
}       

object meter {     
      phases "ABCN";     
      name Meter_18;     
      voltage_A 2401.7771;     
      voltage_B -1200.8886-2080.000j;     
      voltage_C -1200.8886+2080.000j;     
      nominal_voltage 2401.7771;     
}       

object meter {     
      phases "ABCN";     
      name Meter_21;     
      voltage_A 2401.7771;     
      voltage_B -1200.8886-2080.000j;     
      voltage_C -1200.8886+2080.000j;     
      nominal_voltage 2401.7771;     
}       

object meter {     
      phases "ABCN";     
      name Meter_23;     
      voltage_A 2401.7771;     
      voltage_B -1200.8886-2080.000j;     
      voltage_C -1200.8886+2080.000j;     
      nominal_voltage 2401.7771;     
}       

object meter {     
      phases "ABCN";     
      name Meter_25;     
      voltage_A 2401.7771;     
      voltage_B -1200.8886-2080.000j;     
      voltage_C -1200.8886+2080.000j;     
      nominal_voltage 2401.7771;     
}       

object meter {     
      phases "ACN";     
      name Meter_26;     
      voltage_A 2401.7771;     
      voltage_B -1200.8886-2080.000j;     
      voltage_C -1200.8886+2080.000j;     
      nominal_voltage 2401.7771;     
}       

object meter {     
      phases "ACN";     
      name Meter_2601;     
      voltage_A 2401.7771;     
      voltage_B -1200.8886-2080.000j;     
      voltage_C -1200.8886+2080.000j;     
      nominal_voltage 2401.7771;     
}       

object meter {     
      phases "ACN";     
      name Meter_27;     
      voltage_A 2401.7771;     
      voltage_B -1200.8886-2080.000j;     
      voltage_C -1200.8886+2080.000j;     
      nominal_voltage 2401.7771;     
}       

object meter {     
      phases "ABN";     
      name Meter_36;     
      voltage_A 2401.7771;     
      voltage_B -1200.8886-2080.000j;     
      voltage_C -1200.8886+2080.000j;     
      nominal_voltage 2401.7771;     
}       

object meter {     
      phases "ABCN";     
      name Meter_40;     
      voltage_A 2401.7771;     
      voltage_B -1200.8886-2080.000j;     
      voltage_C -1200.8886+2080.000j;     
      nominal_voltage 2401.7771;     
}       

object meter {     
      phases "ABCN";     
      name Meter_44;     
      voltage_A 2401.7771;     
      voltage_B -1200.8886-2080.000j;     
      voltage_C -1200.8886+2080.000j;     
      nominal_voltage 2401.7771;     
}       

object meter {     
      phases "ABCN";     
      name Meter_54;     
      voltage_A 2401.7771;     
      voltage_B -1200.8886-2080.000j;     
      voltage_C -1200.8886+2080.000j;     
      nominal_voltage 2401.7771;     
}       

object meter {     
      phases "ABCN";     
      name Meter_57;     
      voltage_A 2401.7771;     
      voltage_B -1200.8886-2080.000j;     
      voltage_C -1200.8886+2080.000j;     
      nominal_voltage 2401.7771;     
}       

object meter {     
      phases "ABCN";     
      name Meter_61;     
      voltage_A 2401.7771;     
      voltage_B -1200.8886-2080.000j;     
      voltage_C -1200.8886+2080.000j;     
      nominal_voltage 2401.7771;     
}       

object meter {     
      phases "ABCN";     
      name Meter_67;     
      voltage_A 2401.7771;     
      voltage_B -1200.8886-2080.000j;     
      voltage_C -1200.8886+2080.000j;     
      nominal_voltage 2401.7771;     
}       

object meter {     
      phases "ABCN";     
      name Meter_6701;     
      voltage_A 2401.7771;     
      voltage_B -1200.8886-2080.000j;     
      voltage_C -1200.8886+2080.000j;     
      nominal_voltage 2401.7771;     
}       

object meter {     
      phases "ABCN";     
      name Meter_72;     
      voltage_A 2401.7771;     
      voltage_B -1200.8886-2080.000j;     
      voltage_C -1200.8886+2080.000j;     
      nominal_voltage 2401.7771;     
}       

object meter {     
      phases "ABCN";     
      name Meter_78;     
      voltage_A 2401.7771;     
      voltage_B -1200.8886-2080.000j;     
      voltage_C -1200.8886+2080.000j;     
      nominal_voltage 2401.7771;     
}       

object meter {     
      phases "ABCN";     
      name Meter_81;     
      voltage_A 2401.7771;     
      voltage_B -1200.8886-2080.000j;     
      voltage_C -1200.8886+2080.000j;     
      nominal_voltage 2401.7771;     
}       

object meter {     
      phases "ABCN";     
      name Meter_89;     
      voltage_A 2401.7771;     
      voltage_B -1200.8886-2080.000j;     
      voltage_C -1200.8886+2080.000j;     
      nominal_voltage 2401.7771;     
}       

object meter {     
      phases "ABCN";     
      name Meter_91;     
      voltage_A 2401.7771;     
      voltage_B -1200.8886-2080.000j;     
      voltage_C -1200.8886+2080.000j;     
      nominal_voltage 2401.7771;     
}       

object meter {     
      phases "ABCN";     
      name Meter_93;     
      voltage_A 2401.7771;     
      voltage_B -1200.8886-2080.000j;     
      voltage_C -1200.8886+2080.000j;     
      nominal_voltage 2401.7771;     
}       

object meter {     
      phases "ABCN";     
      name Meter_97;     
      voltage_A 2401.7771;     
      voltage_B -1200.8886-2080.000j;     
      voltage_C -1200.8886+2080.000j;     
      nominal_voltage 2401.7771;     
}       

object meter {     
      phases "ABCN";     
      name Meter_101;     
      voltage_A 2401.7771;     
      voltage_B -1200.8886-2080.000j;     
      voltage_C -1200.8886+2080.000j;     
      nominal_voltage 2401.7771;     
}       

object meter {     
      phases "ABCN";     
      name Meter_105;     
      voltage_A 2401.7771;     
      voltage_B -1200.8886-2080.000j;     
      voltage_C -1200.8886+2080.000j;     
      nominal_voltage 2401.7771;     
}       

object meter {     
      phases "ABCN";     
      name Meter_108;     
      voltage_A 2401.7771;     
      voltage_B -1200.8886-2080.000j;     
      voltage_C -1200.8886+2080.000j;     
      nominal_voltage 2401.7771;     
}       

object meter {     
      phases "AN";     
      name Meter_110;     
      voltage_A 2401.7771;     
      voltage_B -1200.8886-2080.000j;     
      voltage_C -1200.8886+2080.000j;     
      nominal_voltage 2401.7771;     
}       

object meter {     
      phases "ABCN";     
      name Meter_135;     
      voltage_A 2401.7771;     
      voltage_B -1200.8886-2080.000j;     
      voltage_C -1200.8886+2080.000j;     
      nominal_voltage 2401.7771;     
}       

object meter {     
      phases "ABCN";     
      name Meter_149;     
      voltage_A 2401.7771;     
      voltage_B -1200.8886-2080.000j;     
      voltage_C -1200.8886+2080.000j;     
      nominal_voltage 2401.7771;     
}       

object meter {     
      phases "ABCN";     
      name Meter_1491;     
      voltage_A 2401.7771;     
      voltage_B -1200.8886-2080.000j;     
      voltage_C -1200.8886+2080.000j;     
      nominal_voltage 2401.7771;     
}       

object meter {     
      phases "ABCN";     
      name Meter_150;     
      bustype SWING;     
      voltage_A 2401.7771;     
      voltage_B -1200.8886-2080.000j;     
      voltage_C -1200.8886+2080.000j;     
      nominal_voltage 2401.7771;     

object recorder {     
      property measured_real_power;     
      interval 30;     
      file power_out_real.csv;     
};       
}       

object meter {     
      phases "ABCN";     
      name Meter_151;     
      voltage_A 2401.7771;     
      voltage_B -1200.8886-2080.000j;     
      voltage_C -1200.8886+2080.000j;     
      nominal_voltage 2401.7771;     
}       

object meter {     
      phases "ABCN";     
      name Meter_152;     
      voltage_A 2401.7771;     
      voltage_B -1200.8886-2080.000j;     
      voltage_C -1200.8886+2080.000j;     
      nominal_voltage 2401.7771;     
}       

object meter {     
      phases "ABCN";     
      name Meter_160;     
      voltage_A 2401.7771;     
      voltage_B -1200.8886-2080.000j;     
      voltage_C -1200.8886+2080.000j;     
      nominal_voltage 2401.7771;     
}       

object meter {     
      phases "ABCN";     
      name Meter_195;     
      voltage_A 2401.7771;     
      voltage_B -1200.8886-2080.000j;     
      voltage_C -1200.8886+2080.000j;     
      nominal_voltage 2401.7771;     
}       

object meter {     
      phases "ABCN";     
      name Meter_197;     
      voltage_A 2401.7771;     
      voltage_B -1200.8886-2080.000j;     
      voltage_C -1200.8886+2080.000j;     
      nominal_voltage 2401.7771;     
}       

object meter {     
      phases "ABCN";     
      name Meter_250;     
      voltage_A 2401.7771;     
      voltage_B -1200.8886-2080.000j;     
      voltage_C -1200.8886+2080.000j;     
      nominal_voltage 2401.7771;     
}       

object meter {     
      phases "ABCN";     
      name Meter_251;     
      voltage_A 2401.7771;     
      voltage_B -1200.8886-2080.000j;     
      voltage_C -1200.8886+2080.000j;     
      nominal_voltage 2401.7771;     
}       

object meter {     
      phases "ABCN";     
      name Meter_300;     
      voltage_A 2401.7771;     
      voltage_B -1200.8886-2080.000j;     
      voltage_C -1200.8886+2080.000j;     
      nominal_voltage 2401.7771;     
}       

object meter {     
      phases "ABCN";     
      name Meter_350;     
      voltage_A 2401.7771;     
      voltage_B -1200.8886-2080.000j;     
      voltage_C -1200.8886+2080.000j;     
      nominal_voltage 2401.7771;     
}       

object meter {     
      phases "ABCN";     
      name Meter_450;     
      voltage_A 2401.7771;     
      voltage_B -1200.8886-2080.000j;     
      voltage_C -1200.8886+2080.000j;     
      nominal_voltage 2401.7771;     
}       

object meter {     
      phases "ABCN";     
      name Meter_451;     
      voltage_A 2401.7771;     
      voltage_B -1200.8886-2080.000j;     
      voltage_C -1200.8886+2080.000j;     
      nominal_voltage 2401.7771;     
}       

object meter {     
      phases "ABCN";     
      name Meter_610;     
      voltage_A 480.000+0j;     
      voltage_B -240.000-415.6922j;     
      voltage_C -240.000+415.6922j;     
      nominal_voltage 480.000;     
}       

object meter {     
      phases "ABCN";     
      name Meter_611;     
      voltage_A 2401.7771;     
      voltage_B -1200.8886-2080.000j;     
      voltage_C -1200.8886+2080.000j;     
      nominal_voltage 2401.7771;     
}       

object meter {
      name Meter_1;     
      phases "ABCN";     
      nominal_voltage 2401.7771;     
}

object meter {
      name Meter_2;     
      phases "BN";     
      nominal_voltage 2401.7771;     
}

object meter {
      name Meter_4;     
      phases "CN";     
      nominal_voltage 2401.7771;     
}

object meter {
      name Meter_5;     
      phases "CN";     
      nominal_voltage 2401.7771;     
}

object meter {
      name Meter_6;     
      phases "CN";     
      nominal_voltage 2401.7771;     
}

object meter {
      name Meter_7;     
      phases "ABCN";     
      nominal_voltage 2401.7771;     
}

object meter {
      name Meter_9;     
      phases "AN";     
      nominal_voltage 2401.7771;     
}

object meter {
      name Meter_10;     
      phases "AN";     
      nominal_voltage 2401.7771;     
}

object meter {
      name Meter_11;     
      phases "AN";     
      nominal_voltage 2401.7771;     
}

object meter {
      name Meter_12;     
      phases "BN";     
      nominal_voltage 2401.7771;     
}

object meter {
      name Meter_16;     
      phases "CN";     
      nominal_voltage 2401.7771;     
}

object meter {
      name Meter_17;     
      phases "CN";     
      nominal_voltage 2401.7771;     
}

object meter {
      name Meter_19;     
      phases "AN";     
      nominal_voltage 2401.7771;     
}

object meter {
      name Meter_20;     
      phases "AN";     
      nominal_voltage 2401.7771;     
}

object meter {
      name Meter_22;     
      phases "BN";     
      nominal_voltage 2401.7771;     
}

object meter {
      name Meter_24;     
      phases "CN";     
      nominal_voltage 2401.7771;     
}

object meter {
      name Meter_28;     
      phases "ABCN";     
      nominal_voltage 2401.7771;     
}

object meter {
      name Meter_29;     
      phases "ABCN";     
      nominal_voltage 2401.7771;     
}

object meter {
      name Meter_30;     
      phases "ABCN";     
      nominal_voltage 2401.7771;     
}

object meter {
      name Meter_31;     
      phases "CN";     
      nominal_voltage 2401.7771;     
}

object meter {
      name Meter_32;     
      phases "CN";     
      nominal_voltage 2401.7771;     
}

object meter {
      name Meter_33;     
      phases "AN";     
      nominal_voltage 2401.7771;     
}

object meter {
      name Meter_34;     
      phases "CN";     
      nominal_voltage 2401.7771;     
}

object meter {
      name Meter_35;     
      phases "ABCD";     
      nominal_voltage 2401.7771;     
}

object meter {
      name Meter_37;     
      phases "AN";     
      nominal_voltage 2401.7771;     
}

object meter {
      name Meter_38;     
      phases "BN";     
      nominal_voltage 2401.7771;     
}

object meter {
      name Meter_39;     
      phases "BN";     
      nominal_voltage 2401.7771;     
}

object meter {
      name Meter_41;     
      phases "CN";     
      nominal_voltage 2401.7771;     
}

object meter {
      name Meter_42;     
      phases "ABCN";     
      nominal_voltage 2401.7771;     
}

object meter {
      name Meter_43;     
      phases "BN";     
      nominal_voltage 2401.7771;     
}

object meter {
      name Meter_45;     
      phases "AN";     
      nominal_voltage 2401.7771;     
}

object meter {
      name Meter_46;     
      phases "AN";     
      nominal_voltage 2401.7771;     
}

object meter {
      name Meter_47;     
      phases "ABCN";     
      nominal_voltage 2401.7771;     
}

object meter {
      name Meter_48;     
      phases "ABCN";     
      nominal_voltage 2401.7771;     
}

object meter {
      name Meter_49;     
      phases "ABCN";     
      nominal_voltage 2401.7771;     
}

object meter {
      name Meter_50;     
      phases "ABCN";     
      nominal_voltage 2401.7771;     
}

object meter {
      name Meter_51;     
      phases "ABCN";     
      nominal_voltage 2401.7771;     
}

object meter {
      name Meter_52;     
      phases "ABCN";     
      nominal_voltage 2401.7771;     
}

object meter {
      name Meter_53;     
      phases "ABCN";     
      nominal_voltage 2401.7771;     
}

object meter {
      name Meter_55;     
      phases "ABCN";     
      nominal_voltage 2401.7771;     
}

object meter {
      name Meter_56;     
      phases "ABCN";     
      nominal_voltage 2401.7771;     
}

object meter {
      name Meter_58;     
      phases "BN";     
...